snemNSW.m
%% MATPOWER Case Format : Version 2
function mpc = NEM
mpc.version = '2';

%%-----  Power Flow Data  -----%%
%% system MVA base
mpc.baseMVA = 100;
%% bus data
%    bus_i    type    Pd    Qd    Gs    Bs    area    Vm    Va    baseKV    zone    Vmax    Vmin
mpc.bus = [
	1	1	0.0	0.0	0.0	0.0	1	1.0563026656465055	-9.084348255086002	0.55	1	1.1	0.9				
	2	1	0.0	0.0	0.0	0.0	1	1.056323648578213	-9.084642985882471	0.55	1	1.1	0.9				
	3	3	27.214341009702498	22.9900319056034	0.0	0.0	1	1.0155600000008822	4.62700443536447e-34	23.0	1	1.1	0.9				
	4	2	35.305539065715095	25.536955754316597	0.0	0.0	1	1.0262600000008077	1.5598478008263168	23.0	1	1.1	0.9				
	5	2	36.3464705546116	25.4527938492952	0.0	0.0	1	0.9990000000006636	5.062382274700371	23.0	1	1.1	0.9				
	6	2	36.153696760668204	25.952019776483105	0.0	0.0	1	1.0025100000006752	4.787975920436979	23.0	1	1.1	0.9				
	7	1	0.0	0.0	0.0	0.0	1	1.0207825740330168	0.7792225576835473	11.0	1	1.1	0.9				
	8	1	0.0	0.0	0.0	0.0	1	1.0289735817047925	20.971856782587512	22.0	1	1.1	0.9				
	9	1	0.0	0.0	0.0	0.0	1	1.0289735817047925	20.971856782587512	22.0	1	1.1	0.9				
	10	1	0.0	0.0	0.0	0.0	1	1.0289730524269018	20.97182823476099	11.0	1	1.1	0.9				
	11	1	0.0	0.0	0.0	0.0	1	1.0289730021810992	20.97182546412186	11.0	1	1.1	0.9				
	12	2	0.0	0.0	0.0	0.0	1	1.0604999999995164	14.925311144753389	330.0	1	1.1	0.9				
	13	2	0.0	0.0	0.0	0.0	1	1.0154599999998417	9.369343027831635	0.6899999999999998	1	1.1	0.9				
	14	2	0.0	0.0	0.0	0.0	1	1.0172899999998444	9.306249299028023	0.6899999999999998	1	1.1	0.9				
	15	2	0.0	0.0	0.0	0.0	1	1.0125999999998783	8.326750626671172	0.6899999999999998	1	1.1	0.9				
	16	1	0.567323553623725	0.0	0.0	-2.2564771930617287	1	1.0015682561894066	10.269024429445686	0.6899999999999998	1	1.1	0.9				
	17	1	-0.23610117125269	0.0	0.0	-3.91829091666266	1	1.0012624367714364	10.31958560340117	0.6899999999999998	1	1.1	0.9				
	18	2	32.9123161610551	24.711783958261503	0.0	0.0	1	1.0112200000000926	12.420818611406812	23.0	1	1.1	0.9				
	19	2	32.7047949975725	24.864146277261202	0.0	0.0	1	1.0183700000000653	13.065128259413164	23.0	1	1.1	0.9				
	20	2	32.937722768523706	24.8430852986128	0.0	0.0	1	1.0233200000000091	13.68606228018701	23.0	1	1.1	0.9				
	21	2	33.7906400303283	25.010466589327603	0.0	0.0	1	1.0157699999999812	14.355683999395662	23.0	1	1.1	0.9				
	22	1	-83.0623847517897	0.0	0.0	-11.738183787733798	1	0.9980253657470601	17.42961773138496	33.0	1	1.1	0.9				
	23	2	0.041755911774933284	0.0395732937566936	0.0	0.0	1	1.026690000000016	5.073863673684616	16.0	1	1.1	0.9				
	24	2	0.0	0.0	0.0	0.0	1	1.0771299999990986	10.989715533177973	0.6899999999999998	1	1.1	0.9				
	25	2	0.0	0.0	0.0	0.0	1	1.0770499999990981	10.984295253007435	0.6899999999999998	1	1.1	0.9				
	26	2	0.0	-14.681676562177001	0.0	0.0	1	1.0875899999991359	9.90875283586666	0.6899999999999998	1	1.1	0.9				
	27	1	0.0	0.0	0.0	0.0	1	1.0481529481914278	8.859920692969059	132.0	1	1.1	0.9				
	28	2	0.0	0.0	0.0	0.0	1	1.0244899999992303	10.67433204021401	132.0	1	1.1	0.9				
	29	1	0.0	0.0	0.0	0.0	1	1.0222505413096188	-0.07546724620535893	16.0	1	1.1	0.9				
	30	2	0.07874156961217518	0.07739421614632008	0.0	0.0	1	1.0191300000000325	4.63591538792968	16.0	1	1.1	0.9				
	31	2	0.0	0.0	0.0	0.0	1	0.9528199999982646	24.867123967832796	11.0	1	1.1	0.9				
	32	1	176.73390301466	-4.11325372574511	0.0	0.0	1	1.056169437542492	-23.261807476212095	33.0	1	1.1	0.9				
	33	1	-3.33792712396276	0.0	0.0	13.035399475330497	1	0.9277645741452825	14.861696107675526	11.0	1	1.1	0.9				
	34	2	18.341554469353003	10.3636909979163	0.0	0.0	1	0.9734900000000558	13.138934200761579	22.0	1	1.1	0.9				
	35	2	17.4121562782648	10.893810214865999	0.0	0.0	1	0.9320500000000145	14.139845813361825	22.0	1	1.1	0.9				
	36	2	18.582245540429103	10.5566776532596	0.0	0.0	1	0.9755800000000123	14.205682795565554	22.0	1	1.1	0.9				
	37	2	0.0943259037151933	0.08743726937780161	0.0	0.0	1	0.9789699999983338	29.614484082222393	15.4	1	1.1	0.9				
	38	2	0.0876203157609328	0.09076399877332152	0.0	0.0	1	0.9780499999983339	29.242068861771827	15.4	1	1.1	0.9				
	39	2	0.09111050326647241	0.0927051996761467	0.0	0.0	1	0.9840699999983344	29.694928509175366	15.4	1	1.1	0.9				
	40	2	0.0894937716460321	0.0930797259162646	0.0	0.0	1	0.9818599999983345	29.908457651909625	15.4	1	1.1	0.9				
	41	2	0.09191597477369938	0.0946137851933017	0.0	0.0	1	0.9837699999983311	29.723399325358468	15.4	1	1.1	0.9				
	42	2	0.0944379383103922	0.0882814010351896	0.0	0.0	1	0.9855599999983311	29.593910586404814	15.4	1	1.1	0.9				
	43	2	31.518040437391004	25.972870391560697	0.0	0.0	1	0.9989400000003716	5.633568176789653	23.0	1	1.1	0.9				
	44	1	0.0	0.0	0.0	0.0	1	1.0265588026327643	-1.171313545052949	23.0	1	1.1	0.9				
	45	1	0.0	0.0	0.0	0.0	1	0.989926832882728	-6.4839063021023104	17.5	1	1.1	0.9				
	46	1	-6.321807256489991	0.0	0.0	0.062422145700082164	1	1.0019651069453204	13.498153935462883	22.0	1	1.1	0.9				
	47	1	1.02072695429423	0.733871934417821	0.0	0.0	1	1.0243239284860644	-6.517381464699343	15.0	1	1.1	0.9				
	48	1	1.1200335927479	0.730782591217384	0.0	0.0	1	1.0243087881891644	-6.521969114679192	15.0	1	1.1	0.9				
	49	1	0.968675146375224	0.592623299681395	0.0	0.0	1	1.0243921103288205	-6.517294217427133	15.0	1	1.1	0.9				
	50	1	0.9397457393940071	0.5860383047368382	0.0	0.0	1	1.0244025077839636	-6.51579991862231	15.0	1	1.1	0.9				
	51	1	-3.06059989218204	0.0	0.0	0.0	1	1.041282924239211	6.938164468903348	0.55	1	1.1	0.9				
	52	1	-20.5648680556712	0.0	0.0	-3.910596988102419	1	1.0259141460694527	23.17158371225806	22.0	1	1.1	0.9				
	53	1	-20.355388152304997	0.0	0.0	-3.6806902014426894	1	1.0266158010598527	23.07931697711069	22.0	1	1.1	0.9				
	54	1	37.3257623166889	4.58530336711928	0.0	-4.595364754858888	1	1.0150279455245628	16.166206136177767	11.0	1	1.1	0.9				
	55	1	0.0	0.0	0.0	0.0	1	1.06808808452232	15.073723079249294	0.55	1	1.1	0.9				
	56	2	7.19655427563423	2.41647754932139	0.0	0.0	1	0.9880100000003142	3.72255285740256	21.0	1	1.1	0.9				
	59	1	0.0	0.0	0.0	0.0	1	1.0131022677926198	18.680548882211244	132.0	1	1.1	0.9				
	60	1	-14.282245254126602	0.0	0.0	-4.096644248932134	1	1.0435930155294293	14.093886854629448	12.0	1	1.1	0.9				
	61	2	0.0	0.0	0.0	0.0	1	1.0270000000013784	-11.46515942071464	330.0	1	1.1	0.9				
	63	2	0.0	0.0	0.0	0.0	1	1.0414899999976572	22.777751065915812	11.0	1	1.1	0.9				
	64	2	0.0	0.0	0.0	0.0	1	1.0629799999980032	35.84901823393235	15.75	1	1.1	0.9				
	65	2	0.0	0.0	0.0	0.0	1	1.0575999999980057	36.036298648624346	15.75	1	1.1	0.9				
	66	2	0.0	0.0	0.0	0.0	1	1.063539999998005	36.02805429008262	15.75	1	1.1	0.9				
	67	2	0.0	0.0	0.0	0.0	1	1.0626299999980076	36.16811398447389	15.75	1	1.1	0.9				
	68	1	0.0	0.0	0.0	0.0	1	0.970858139953268	20.35948544372909	12.5	1	1.1	0.9				
	69	2	0.0433923930488527	0.043749541898723696	0.0	0.0	1	0.9635399999983624	22.64283689663825	12.5	1	1.1	0.9				
	70	2	0.0448706568134017	0.0477275057820603	0.0	0.0	1	0.9702499999983616	23.020955911210667	12.5	1	1.1	0.9				
	71	1	0.0	0.0	0.0	0.0	1	0.9716333339266611	20.279197409840233	12.5	1	1.1	0.9				
	72	1	0.0	0.0	0.0	0.0	1	1.0168851212672987	20.43491907535414	12.5	1	1.1	0.9				
	73	2	0.0380112225227058	0.0406420744564384	0.0	0.0	1	1.00306999999828	23.3534187973784	12.5	1	1.1	0.9				
	74	2	0.0387934326939285	0.038430588806048	0.0	0.0	1	1.0127499999982816	23.488406125726772	12.5	1	1.1	0.9				
	75	2	0.0380778377875686	0.0389150532997213	0.0	0.0	1	1.0241899999982815	23.60694611936495	12.5	1	1.1	0.9				
	76	2	26.3099001010022	14.9509423831273	0.0	0.0	1	1.0188500000008487	1.06072277429882	23.0	1	1.1	0.9				
	77	2	27.959039167828397	14.5822928520143	0.0	0.0	1	1.0095500000008435	1.1913182409368535	23.0	1	1.1	0.9				
	78	1	17.944003521226342	9.016822778878133	0.0	-4.9940764243723805	1	1.0250747928375226	17.798946370486785	66.0	1	1.1	0.9				
	79	2	0.0	0.0	0.0	0.0	1	1.0445900000015635	-13.83982649110099	11.0	1	1.1	0.9				
	80	2	0.0	0.0	0.0	0.0	1	1.042060000001548	-13.446844992550687	11.0	1	1.1	0.9				
	81	1	0.0	0.0	0.0	0.0	1	1.052576328390688	-19.563136260797894	11.0	1	1.1	0.9				
	82	1	0.0	0.0	0.0	0.0	1	1.0529058178840438	-19.562633162838846	11.0	1	1.1	0.9				
	83	1	0.0	0.0	0.0	0.0	1	1.0809414071814483	5.34974581541111	11.5	1	1.1	0.9				
	84	1	0.0	0.0	0.0	0.0	1	1.0809414071814483	5.34974581541111	11.5	1	1.1	0.9				
	85	1	0.0	0.0	0.0	0.0	1	1.0415345622901364	-2.4927481940458294	500.0	1	1.1	0.9				
	86	1	0.0	0.0	0.0	0.0	1	1.0188861620582832	-4.312029905196305	330.0	1	1.1	0.9				
	87	1	0.0	0.0	0.0	0.0	1	1.047247225122151	-5.928527162408096	500.0	1	1.1	0.9				
	88	1	0.0	0.0	0.0	412.0286558941007	1	1.0446541689699809	-9.009359603554909	330.0	1	1.1	0.9				
	89	1	37.6267045701061	13.56006488609383	0.0	0.0	1	1.0342680908677822	-17.65056851996788	132.0	1	1.1	0.9				
	90	1	0.0	0.0	0.0	0.0	1	1.0681184667302457	14.925037919423552	330.0	1	1.1	0.9				
	91	1	0.0	0.0	0.0	0.0	1	1.025486084525309	-4.388677833227265	330.0	1	1.1	0.9				
	92	1	0.0	0.0	0.0	0.0	1	1.0484829058313483	0.7905117417695235	500.0	1	1.1	0.9				
	93	1	0.0	0.0	0.0	0.0	1	1.0283622197789224	0.3576340858882534	330.0	1	1.1	0.9				
	94	1	0.0	0.0	0.0	0.0	1	1.0562807516809452	7.00319274086531	500.0	1	1.1	0.9				
	95	1	0.0	0.0	0.0	0.0	1	1.0343914489433927	6.618347077645402	330.0	1	1.1	0.9				
	96	1	0.0	0.0	0.0	0.0	1	1.02229321005615	-0.04848140503034254	330.0	1	1.1	0.9				
	97	1	0.0	0.0	0.0	0.0	1	1.021393326350209	8.432508940166718	330.0	1	1.1	0.9				
	98	1	0.0	0.0	0.0	0.0	1	1.0119946633650745	11.683410123933971	330.0	1	1.1	0.9				
	99	1	0.0	0.0	0.0	0.0	1	1.0693123062566405	11.084138028069098	330.0	1	1.1	0.9				
	100	1	0.0	0.0	0.0	0.0	1	1.0239760587866855	-4.091202267354016	330.0	1	1.1	0.9				
	101	1	0.0	0.0	0.0	0.0	1	1.0683652138759603	20.84173725680277	330.0	1	1.1	0.9				
	102	1	0.0	0.0	0.0	-155.26726707816096	1	1.0359781647337603	-11.976182152662536	330.0	1	1.1	0.9				
	103	1	0.0	0.0	0.0	0.0	1	1.0483690524575746	13.623255768252665	132.0	1	1.1	0.9				
	104	1	-891.2079690380697	68.16630869537033	0.0	-62.15075569320469	1	1.0528673074596873	25.609119720258924	330.0	1	1.1	0.9				
	105	1	0.0	0.0	0.0	0.0	1	1.050880467057398	-14.96273140316544	330.0	1	1.1	0.9				
	106	1	0.0	0.0	0.0	0.0	1	1.0365811087924794	-11.855333257345395	330.0	1	1.1	0.9				
	107	1	0.0	0.0	0.0	0.0	1	1.031297926698559	-10.251015916095783	330.0	1	1.1	0.9				
	108	1	-56.4344818145406	29.156593777828554	0.0	0.0	1	1.0412441512690649	22.072224306397498	330.0	1	1.1	0.9				
	109	1	0.0	0.0	0.0	0.0	1	1.0222505413096208	-0.07546724620535862	330.0	1	1.1	0.9				
	110	1	0.0	0.0	0.0	0.0	1	1.0317604846607487	6.6274096198935	330.0	1	1.1	0.9				
	111	1	0.0	0.0	0.0	-100.10944619309201	1	1.0473391791446376	10.286307215618939	330.0	1	1.1	0.9				
	112	1	0.0	0.0	0.0	0.0	1	1.032000932387786	-11.871296667341634	330.0	1	1.1	0.9				
	113	1	-47.72806035426509	21.379180096924706	0.0	0.0	1	1.0256346770166238	22.3122358237306	330.0	1	1.1	0.9				
	114	1	0.0	0.0	0.0	0.0	1	1.0259278350364132	0.425367434675184	330.0	1	1.1	0.9				
	115	1	0.0	0.0	0.0	0.0	1	1.035489130089209	-8.347481362908153	330.0	1	1.1	0.9				
	116	1	0.0	0.0	0.0	0.0	1	1.0561069733566504	1.258033228784911	500.0	1	1.1	0.9				
	117	1	0.0	0.0	0.0	0.0	1	1.037754515149965	-1.171313545052949	330.0	1	1.1	0.9				
	118	1	0.0	0.0	0.0	0.0	1	1.0247772970277154	-6.4839063021023104	330.0	1	1.1	0.9				
	119	1	0.0	0.0	0.0	0.0	1	1.0220909879955702	4.945299257381723	330.0	1	1.1	0.9				
	120	1	0.0	0.0	0.0	0.0	1	1.0303112189722228	6.588579085367474	330.0	1	1.1	0.9				
	121	1	52.1446072876835	-10.4186994219702	0.0	0.0	1	1.045385055485469	-19.57423576431268	132.0	1	1.1	0.9				
	122	1	47.0702037674924	-7.42322407301534	0.0	0.0	1	1.0452892458757828	-19.51260778560126	132.0	1	1.1	0.9				
	123	1	0.771102107275277	0.5350705203771591	0.0	0.0	1	1.0463116099531047	-19.28900359139056	132.0	1	1.1	0.9				
	124	1	46.8132718256355	-6.03130423971033	0.0	0.0	1	1.046520642102954	-19.47852791645545	132.0	1	1.1	0.9				
	125	1	0.0	0.0	0.0	0.0	1	1.0506241200498376	-18.566585855274873	132.0	1	1.1	0.9				
	126	1	0.0	0.0	0.0	0.0	1	1.0105293058117228	-5.300055561886316	330.0	1	1.1	0.9				
	127	1	0.0	0.0	0.0	0.0	1	1.0294892819848342	-10.237147199386015	330.0	1	1.1	0.9				
	128	1	0.0	0.0	0.0	0.0	1	1.041229225579364	-13.645413298942536	330.0	1	1.1	0.9				
	130	1	0.0	0.0	0.0	0.0	1	1.04257855523362	10.549766288570398	132.0	1	1.1	0.9				
	131	1	0.0	0.0	0.0	0.0	1	1.0397351755091928	-12.579682971044406	330.0	1	1.1	0.9				
	132	1	14.2949130828764	5.14730489338171	0.0	0.0	1	1.0280155009823642	18.571159772917312	132.0	1	1.1	0.9				
	133	1	0.0	0.0	0.0	0.0	1	1.0344347625092167	-11.303646798818086	330.0	1	1.1	0.9				
	134	1	0.0	0.0	0.0	-145.46868681209196	1	1.0539773395928838	-14.544587624888594	330.0	1	1.1	0.9				
	135	1	0.0	0.0	0.0	0.0	1	1.0588083644421977	21.572932650247505	330.0	1	1.1	0.9				
	136	1	0.0	0.0	0.0	0.0	1	1.05880836443264	21.572932653171595	330.0	1	1.1	0.9				
	137	1	0.0	0.0	0.0	401.9661514088508	1	1.0334444630598025	-11.46588440213593	330.0	1	1.1	0.9				
	138	1	0.0	0.0	0.0	0.0	1	1.0541676466517707	10.357078450533916	330.0	1	1.1	0.9				
	139	1	969.0150037223428	274.3962842768996	0.0	221.55104858288502	1	1.0043357657695546	-6.157080216467318	330.0	1	1.1	0.9				
	140	1	0.0	0.0	0.0	0.0	1	1.0220597116598824	-9.625589294851997	330.0	1	1.1	0.9				
	141	1	-342.5866294928651	36.538689399317825	0.0	0.0	1	1.0186732140215533	20.12784866554407	330.0	1	1.1	0.9				
	142	2	0.0	0.0	0.0	192.1560231596229	1	1.0250777860011466	-5.54227155133962	330.0	1	1.1	0.9				
	143	1	0.0	0.0	0.0	0.0	1	1.0277288840416634	-11.673559026501781	330.0	1	1.1	0.9				
	144	1	0.0	0.0	0.0	0.0	1	1.0523448175318941	22.618087661561283	330.0	1	1.1	0.9				
	145	1	0.0	0.0	0.0	0.0	1	1.0364246374524697	-1.8615347675444767	330.0	1	1.1	0.9				
	146	1	0.0	0.0	0.0	0.0	1	1.00577002088006	-5.945842616681372	330.0	1	1.1	0.9				
	147	1	0.0	0.0	0.0	0.0	1	1.0062802549549523	10.680395583055395	330.0	1	1.1	0.9				
	148	1	0.0	0.0	0.0	-102.09912414196896	1	1.0283151322367952	-2.087448429783903	330.0	1	1.1	0.9				
	149	1	0.0	0.0	0.0	0.0	1	1.06047125892299	3.388082603911751	500.0	1	1.1	0.9				
	150	1	0.0	0.0	0.0	0.0	1	1.0526580423928356	2.078513030617277	330.0	1	1.1	0.9				
	151	1	0.0	0.0	0.0	0.0	1	1.0148441488787492	9.63972007640655	330.0	1	1.1	0.9				
	152	1	0.0	0.0	0.0	80.07954398542635	1	1.0255999246922387	12.866303219860182	132.0	1	1.1	0.9				
	153	1	0.0	0.0	0.0	0.0	1	1.0808824221257907	10.718771401379687	132.0	1	1.1	0.9				
	154	1	0.0	0.0	0.0	-130.99993497598902	1	0.960345794808058	0.48063953201557386	33.0	1	1.1	0.9				
	155	1	0.0	0.0	0.0	0.0	1	1.0326055261128286	0.4736373615597876	33.0	1	1.1	0.9				
	156	1	0.0	0.0	0.0	0.0	1	1.0515325407997702	-18.552679037472718	132.0	1	1.1	0.9				
	157	1	0.0	0.0	0.0	24.58829244039949	1	1.053643943073409	7.446667404498403	132.0	1	1.1	0.9				
	158	1	0.0	0.0	0.0	116.67410531267501	1	1.0267846781865948	9.431932883903519	132.0	1	1.1	0.9				
	159	1	301.5311189719217	25.095294130560866	0.0	123.898189047351	1	1.0229137988956825	-5.024907652985211	132.0	1	1.1	0.9				
	160	1	0.0	0.0	0.0	-34.6324332985561	1	1.0257390605321	20.91016593025155	220.0	1	1.1	0.9				
	161	1	17.99162321349137	-4.0153217847230875	0.0	38.43425290133799	1	1.081843241770797	20.033511477310984	132.0	1	1.1	0.9				
	162	1	245.3628241939315	97.0274130424602	0.0	-103.90770591329799	1	1.0504375974763407	-18.553319171347205	132.0	1	1.1	0.9				
	163	1	0.0	0.0	0.0	0.0	1	1.023405312536891	-15.314563152478305	132.0	1	1.1	0.9				
	164	1	0.0	0.0	0.0	0.0	1	1.0231404374344422	-15.286775551739439	132.0	1	1.1	0.9				
	165	1	0.0	0.0	0.0	0.0	1	1.046108375578318	20.92545450187163	132.0	1	1.1	0.9				
	166	2	0.0	0.0	0.0	0.0	1	1.0040699999992804	9.83709556718912	132.0	1	1.1	0.9				
	167	1	0.0	0.0	0.0	0.0	1	1.0360998084838693	-14.690617232989519	132.0	1	1.1	0.9				
	168	1	0.0	0.0	0.0	0.0	1	1.0361391088932064	-14.680794500241518	132.0	1	1.1	0.9				
	169	1	0.0	0.0	0.0	0.0	1	1.0361158254740068	-14.683050945999257	132.0	1	1.1	0.9				
	170	1	0.0	0.0	0.0	0.0	1	1.0277472027195216	-0.6354657681391164	132.0	1	1.1	0.9				
	171	1	0.0	0.0	0.0	0.0	1	1.0362383985330628	-13.532640533454872	132.0	1	1.1	0.9				
	172	1	0.0	0.0	0.0	0.0	1	1.0776894164836943	-4.176932545619515	132.0	1	1.1	0.9				
	173	1	0.0	0.0	0.0	0.0	1	1.0416032099250194	-8.421868960380786	132.0	1	1.1	0.9				
	174	2	0.0	0.0	0.0	0.0	1	0.9978099999996237	6.153428652059182	33.0	1	1.1	0.9				
	175	1	0.0	0.0	0.0	0.0	1	1.0529851591166461	4.258363537651302	132.0	1	1.1	0.9				
	176	1	0.0	0.0	0.0	0.0	1	1.0539502193784978	-9.190979227553367	132.0	1	1.1	0.9				
	177	1	73.3572088843278	33.44047211891767	0.0	82.45979792252179	1	1.018729415686366	-12.577455953544	132.0	1	1.1	0.9				
	178	1	632.5183891335346	-25.520239119883644	0.0	110.23872074438297	1	1.0225922381908092	-16.707023071452596	132.0	1	1.1	0.9				
	179	1	215.91967169481802	81.55375378110216	0.0	123.99600445479201	1	1.033968049775029	-16.518425058586974	132.0	1	1.1	0.9				
	180	1	0.0	0.0	0.0	0.0	1	1.0227390560906178	-16.190434392779746	132.0	1	1.1	0.9				
	181	1	0.0	0.0	0.0	0.0	1	1.0229253169641503	-16.710010711200926	132.0	1	1.1	0.9				
	182	1	78.4661207230591	3.5030830638563297	0.0	118.62339701503501	1	1.034926145187667	-15.241947432788685	132.0	1	1.1	0.9				
	183	1	8.25949321419513	0.0191367482934147	0.0	167.431074902415	1	1.0439099375547491	-16.03869814598908	132.0	1	1.1	0.9				
	184	1	24.109205815278102	6.27467704216484	0.0	160.632906526327	1	1.0433635145450268	-15.835010826309976	132.0	1	1.1	0.9				
	185	1	103.77583088981969	19.8401998823269	0.0	0.0	1	1.0279283605960503	8.129602649571567	132.0	1	1.1	0.9				
	186	1	0.0	0.0	0.0	0.0	1	1.061904421191699	-8.294893964782208	132.0	1	1.1	0.9				
	187	1	0.0	0.0	0.0	0.0	1	1.0362488323067311	-10.28138896780936	132.0	1	1.1	0.9				
	188	1	41.184766744947	17.5264675299108	0.0	0.0	1	1.0433651666229007	-11.806821088842632	132.0	1	1.1	0.9				
	189	1	8.196319011532239	-0.7174650966227059	0.0	0.0	1	1.054630983730084	-8.732273751844474	132.0	1	1.1	0.9				
	190	1	0.0	0.0	0.0	0.0	1	1.0461910630889966	-7.765295316985524	132.0	1	1.1	0.9				
	191	1	0.0	0.0	0.0	59.59430044703179	1	1.0372204604349713	-15.59585222225298	132.0	1	1.1	0.9				
	192	1	0.0	0.0	0.0	78.9705364778638	1	1.0531924429129518	24.04202403266985	132.0	1	1.1	0.9				
	193	1	18.255845924162298	8.83805388663374	0.0	0.0	1	1.0756291799096558	-4.521900584009592	132.0	1	1.1	0.9				
	194	1	80.430232870505	30.824093108362604	0.0	0.0	1	1.0491143229323006	-6.871834207643472	132.0	1	1.1	0.9				
	195	1	0.0	0.0	0.0	0.0	1	1.0521640142835962	-11.25038185422239	132.0	1	1.1	0.9				
	196	1	33.561723720686004	22.4382156755955	0.0	0.0	1	1.0444988683183738	-9.893174445666206	132.0	1	1.1	0.9				
	197	1	0.0	0.0	0.0	0.0	1	1.0280915155934076	9.163787629897843	132.0	1	1.1	0.9				
	198	1	0.0	0.0	0.0	19.307430416345596	1	1.0501601725012364	-5.048759893107713	132.0	1	1.1	0.9				
	199	1	0.0	0.0	0.0	0.0	1	1.0394172505832027	11.059725382764814	132.0	1	1.1	0.9				
	200	1	0.0	0.0	0.0	0.0	1	1.045892435765492	-8.890613731243029	132.0	1	1.1	0.9				
	201	1	0.0	0.0	0.0	0.0	1	1.0424596636652532	11.50871686397914	132.0	1	1.1	0.9				
	202	1	34.19279275183901	2.2713786386044688	0.0	6.207856105919931	1	1.045249171090458	9.735776884352221	66.0	1	1.1	0.9				
	203	1	35.387361938633504	7.75040762949604	0.0	0.0	1	1.0451861305374568	-9.87444436357509	132.0	1	1.1	0.9				
	204	1	0.0	0.0	0.0	0.0	1	1.049402321260332	21.119152512857244	220.0	1	1.1	0.9				
...
];

%% generator data
%    bus    Pg    Qg    Qmax    Qmin    Vg    mBase    status    Pmax    Pmin    Pc1    Pc2    Qc1min    Qc1max    Qc2min    Qc2max    ramp_agc    ramp_10    ramp_30    ramp_q    apf
mpc.gen = [
	3	434.7817896073198	-22.09428616981503	361.080897667566	-232.88560096658796	1.01556	848.605419222452	1	848.6054192224522	0.0															
	4	624.40737834601	57.21714533930873	447.694821266016	-186.42936408018898	1.02626	911.2691769853241	1	911.2691769853241	0.0															
	5	650.401460230983	15.95032481356431	388.821155851102	-259.347073892131	0.999	914.521020424575	1	914.521020424575	0.0															
	6	631.7539076734402	30.867049516933008	443.446216774394	-183.809605420828	1.00251	915.047054038756	1	915.047054038756	0.0															
	13	30.2265357711347	2.037812903105427	2.77527580510248	-2.82548800646961	1.01546	41.1012975615542	1	41.1012975615542	0.0															
	14	32.1221972278725	3.7174295978368512	5.342418080064651	-5.176808585592781	1.01729	45.4628463133704	1	45.4628463133704	0.0															
	15	19.277781191996898	0.3179355643627806	0.515716733953799	-0.5106635269879599	1.0126	28.477100057434303	1	28.477100057434303	0.0															
	18	565.935071064465	67.68568772554019	439.83294185714306	-271.24127730494394	1.01122	853.1517461942509	1	853.1517461942508	0.0															
	19	664.1802905846021	115.2750968492018	421.6389582355971	-272.264737280784	1.01837	828.587737327442	1	828.587737327442	0.0															
	20	630.779430353494	121.00859386220853	427.189790036436	-264.036246150499	1.02332	824.9557847308	1	824.9557847308001	0.0															
	21	660.810311423638	86.86085674365232	424.976144654024	-270.017779694172	1.01577	815.543500367366	1	815.5435003673662	0.0															
	23	81.9568333770882	5.010777765045322	43.6772291879432	-24.477591651959603	1.02669	100.1029132	1	100.1029132	0.0															
	30	77.3267838781388	-2.275059656236906	41.1498081746824	-28.311724570271394	1.01913	99.5320069049927	1	99.5320069049927	0.0															
	31	55.970990066540104	-6.735796897944437	28.8423004899453	-28.927321126509902	0.95282	90.5889255829901	1	90.5889255829901	0.0															
	34	405.05126933506904	27.682173750445767	202.223581927363	-101.9818583922	0.97349	643.693602205161	1	643.6936022051609	0.0															
	35	407.77499201904703	-95.52404154316405	210.9268069	-114.72612428000002	0.93205	645.28666725168	1	645.2866672516801	0.0															
	36	426.5161774322531	40.25112058776769	200.851186675485	-98.66806532924531	0.97558	628.9849849482072	1	628.9849849482072	0.0															
	37	246.36371654223402	12.669859880095055	88.05994908506982	-87.7627587602939	0.97897	343.073364149896	1	343.073364149896	0.0															
	38	246.53546941532	8.617744017383046	89.1417249809485	-88.67327827280391	0.97805	338.426626157714	1	338.426626157714	0.0															
	39	248.465284474285	24.11130048868258	89.38251127647241	-87.9663448969368	0.98407	341.42365312634496	1	341.42365312634496	0.0															
	40	256.48333277373905	17.96724305475513	86.8566196294967	-89.5501706256066	0.98186	336.309318444924	1	336.309318444924	0.0															
	41	245.36307114282198	20.969766889819095	88.5082245273981	-87.0222746504471	0.98377	333.510404178291	1	333.51040417829097	0.0															
	42	242.463117731816	25.96331694915941	89.7792039635126	-87.1795750621241	0.98556	340.135576679022	1	340.135576679022	0.0															
	43	641.205869383868	-85.8484721015429	411.241218333378	-178.21046795036898	0.99894	832.440999925509	1	832.440999925509	0.0															
	56	409.952588354057	3.872383622668371	275.95224707040506	-122.92843904081	0.98801	546.171568101272	1	546.171568101272	0.0															
	63	20.5592082879526	0.23133523213480162	13.1827446830459	-10.8955121632079	1.04149	29.6002670221357	1	29.6002670221357	0.0															
	64	151.99882825729298	-1.6994854706412086	92.5178569113446	-46.3170552711485	1.06298	210.894545504451	1	210.894545504451	0.0															
	65	147.744403827981	-7.20861186374332	92.38101845694561	-45.3271333475836	1.0576	207.096134014428	1	207.096134014428	0.0															
	66	157.04825788377198	-0.5535666147200323	92.83365465915378	-46.34384567925989	1.06354	209.43448703438	1	209.43448703438003	0.0															
	67	150.91881079843	-1.1869726487114711	92.8993434242263	-45.439055461244706	1.06263	210.867295503616	1	210.86729550361602	0.0															
	69	45.5453139887114	-9.22391387045539	28.6993696373887	-28.4829097341048	0.96354	108.81484992434301	1	108.81484992434301	0.0															
	70	49.67218813880051	-1.7820167105573745	28.623892573057695	-29.698734820657396	0.97025	110.332978322869	1	110.33297832286901	0.0															
	73	43.2331766436034	-12.106393965693481	31.887023373483697	-29.799463425576704	1.00307	96.48768505742771	1	96.4876850574277	0.0															
	74	41.671530701732294	-4.855120638947348	30.8808518911945	-30.3624346183613	1.01275	98.0252477621194	1	98.0252477621194	0.0															
	75	43.07847587842049	4.512158151885112	31.233938283124	-30.148387419432403	1.02419	96.5074638390634	1	96.5074638390634	0.0															
	76	601.9228605073649	63.19690561941825	409.513369222329	-155.004466757959	1.01885	835.11956340652	1	835.1195634065199	0.0															
	77	594.185006502323	21.060946527738903	409.293647633433	-151.15426776656798	1.00955	829.493444249593	1	829.4934442495929	0.0															
	79	33.6224140786135	-3.0035408235472913	6.986617477999999	-17.030025791	1.04459	52.3175148501992	1	52.317514850199196	0.0															
	80	34.037052000734604	-3.3754547119650082	7.617062496	-17.677017947	1.04206	51.9722352538258	1	51.97223525382581	0.0															
	12	0.0	-51.705320088383466	317.466779958177	-145.508933043224	1.0605	1.08747929753736	1	108.74792975373599	0.0															
	24	38.3974242998332	1.6126505261386652	0	0	1.07713	0.7938849320478039	1	79.38849320478039	0.0															
	25	33.235892587486596	1.2325911650864492	0	0	1.07705	0.7164935316257183	1	71.64935316257183	0.0															
	26	20.9660063255453	1.6905628727927626	5.7353400992	-15.7434670301	1.08759	0.500407203184462	1	50.0407203184462	0.0															
	28	79.16047462791389	7.582426040330717	56.56813206504031	-164.109961235599	1.02449	1.0770017568	1	107.70017568000002	0.0															
	61	0.0	-134.94528574184076	323.75342739999996	-165.2570816	1.027	1.8038791959	1	180.38791959	0.0															
	142	4.349383474000001	-7.658811095724334	200.0	-200.0	1.025077786	9.0	1	900.0	0.0															
	166	0.0	-12.365093474175056	158.03666178602703	-106.989946309477	1.00407	2.73906388320029	1	273.906388320029	0.0															
	174	43.239112921556796	5.174326682544815	8.416800788	-18.522085447000002	0.99781	0.9059436245695692	1	90.59436245695693	0.0															
	570	31.445522482500206	-1.0537433301442978	5.6190062484	-15.605754589000002	1.02379	0.6034229714247631	1	60.34229714247631	0.0															
];

%% branch data
%    f_bus    t_bus    r    x    b    rateA    rateB    rateC    ratio    angle    status    angmin    angmax
mpc.branch = [
	27	625	0.00152196994437692	0.003455772831731148	0.000785690238245297	10000	10000	10000	0	0	1	-59.99999999999999	59.99999999999999	-5.750854978857356e-12	-9.777352809759582e-12	2.5804136504956575e-8	-0.08631768681243528				
	28	291	0.020922627211152196	0.050615341550186474	0.010714697894051696	10000	10000	10000	0	0	1	-59.99999999999999	59.99999999999999	21.599945185711462	9.201649602818227	-21.48793595057283	-10.045221998609142				
	28	292	0.0213946048670181	0.04942146980714439	0.012801024095775597	10000	10000	10000	0	0	1	-59.99999999999999	59.99999999999999	23.299270582186463	9.755951377497974	-23.16644990396919	-10.77984275278231				
	28	350	0.020236665886361197	0.050316143305972186	0.10562471664845893	10000	10000	10000	0	0	1	-59.99999999999999	59.99999999999999	30.553748748296417	-14.114036573584753	-30.359593149772902	3.5288923014953455				
	52	594	0.026853445793652002	0.19165742354521298	5.195117468480018e-5	10000	10000	10000	0	0	1	-59.99999999999999	59.99999999999999	20.56486805567111	-4.115902685141543	-20.452649476841206	4.911340799173808				
	53	594	0.026984079889560107	0.185702086980017	5.17387384688482e-5	10000	10000	10000	0	0	1	-59.99999999999999	59.99999999999999	20.35538815230491	-3.879226641898253	-20.245456566694266	4.630300746424936				
	59	260	0.011122782782912299	0.0297112037291843	0.006220453130174425	10000	10000	10000	0	0	1	-59.99999999999999	59.99999999999999	-55.61854299761942	12.25006724737995	55.97089646249261	-11.94893666618754				
	59	267	0.045772095961356514	0.120590632657148	0.025792474726494402	10000	10000	10000	0	0	1	-59.99999999999999	59.99999999999999	54.63517638312455	-35.06929987798188	-52.79614609172635	37.21802981972745				
	59	304	0.006779413947917152	0.018607729760026597	0.004025052771484478	10000	10000	10000	0	0	1	-59.99999999999999	59.99999999999999	-16.98137302971152	8.081495388106132	17.004957463224855	-8.429729458826243				
	85	87	0.0011389550104285596	0.01393588748747199	1.6833172193448998	10000	10000	10000	0	0	1	-59.99999999999999	59.99999999999999	463.6258962953641	-157.82098317411374	-461.32263249961187	2.3933860310112576				
	85	87	0.0011225049821915992	0.013771688338268497	1.6954215021408197	10000	10000	10000	0	0	1	-59.99999999999999	59.99999999999999	469.17675686027377	-159.16925867361473	-466.85222353853646	2.758404264362774				
	86	126	0.0006403316210620108	0.0064468902751826694	0.080071637497656	10000	10000	10000	0	0	1	-59.99999999999999	59.99999999999999	285.92341961789873	101.89349080636434	-285.34979112648074	-104.36274102936254				
	86	126	0.000620334336382803	0.006148481834081931	0.08240736240510083	10000	10000	10000	0	0	1	-59.99999999999999	59.99999999999999	299.92599790357644	106.43641846164793	-299.3152227650581	-108.86775104841458				
	86	142	0.0008590316504566002	0.008691190724875782	0.112796315229684	10000	10000	10000	0	0	1	-59.99999999999999	59.99999999999999	248.6807016069452	-100.24989758565799	-248.09523824724752	94.39219371202772				
	86	143	0.0031186025418690404	0.03052345278941931	0.45626901837147793	10000	10000	10000	0	0	1	-59.99999999999999	59.99999999999999	434.89575445639986	-69.35726647649821	-429.15137677020886	77.80112300218852				
	88	115	0.0006390014028278651	0.0064548685555730016	0.09401233060830509	10000	10000	10000	0	0	1	-59.99999999999999	59.99999999999999	-177.0576228836723	161.84297891308708	177.4044343050007	-168.50963779723278				
	88	131	0.0014358749276801	0.014644579098475205	0.18420688904757598	10000	10000	10000	0	0	1	-59.99999999999999	59.99999999999999	462.280341296077	-5.892762948702634	-459.468327018022	14.564568006565148				
	88	133	0.0006980898858401917	0.006846981908912769	0.09338147855802613	10000	10000	10000	0	0	1	-59.99999999999999	59.99999999999999	642.3184666949744	97.98690322045265	-639.6113257829292	-81.5263525876809				
	89	206	0.00190910632741973	0.007129405827031276	0.002942751897148789	10000	10000	10000	0	0	1	-59.99999999999999	59.99999999999999	-31.533237120317775	-3.849570201630753	31.551226433190887	3.6017052331333286				
	89	220	0.0019061232666470094	0.007716950060326607	0.0030020815442502492	10000	10000	10000	0	0	1	-59.99999999999999	59.99999999999999	-31.057142035449147	-1.6852515323887345	31.074370760654745	1.4336524078896544				
	89	318	0.0010623007548565002	0.005586957135185598	0.010829931442786	10000	10000	10000	0	0	1	-59.99999999999999	59.99999999999999	-34.721386376652354	-3.4857147632718783	34.733442505507774	2.39005512280223				
	89	431	0.000852000579141825	0.0034720303751509607	0.004113535888313782	10000	10000	10000	0	0	1	-59.99999999999999	59.99999999999999	24.115038127410344	3.551763752020292	-24.110293020718416	-3.972317735642377				
	89	434	0.0008233101740442222	0.0034664138908933385	0.00408581066967174	10000	10000	10000	0	0	1	-59.99999999999999	59.99999999999999	35.570022834913615	-8.091292140804459	-35.559807894097204	7.697244869840067				
	90	99	0.00549684407743448	0.04001467715759991	0.5277011763906659	10000	10000	10000	0	0	1	-59.99999999999999	59.99999999999999	188.09425974431875	-52.716380791634855	-186.3650073505994	5.033054976616547				
	90	104	0.0036628589148653694	0.046574779405701004	0.7304052178330444	10000	10000	10000	0	0	1	-59.99999999999999	59.99999999999999	-438.8912290284792	69.68584047101041	445.4736735731588	-68.13622844093084				
	90	136	0.0024404891880895	0.029288513049949005	0.47137858199290905	10000	10000	10000	0	0	1	-59.99999999999999	59.99999999999999	-438.97870181792985	69.60430342600583	443.30003764229014	-71.0553852830082				
	90	138	0.00411569981152844	0.0332833799581951	0.405787904264694	10000	10000	10000	0	0	1	-59.99999999999999	59.99999999999999	272.13082505463086	-1.2820673037260255	-269.44204580575547	-22.668650857109267				
	90	138	0.005464298468891071	0.035343942727401906	0.43209820210204875	10000	10000	10000	0	0	1	-59.99999999999999	59.99999999999999	255.6903758591019	-11.8994705965845	-252.55129347667364	-16.45387275436378				
	91	100	0.00032143239948153506	0.0034259883954422506	0.039614513562890204	10000	10000	10000	0	0	1	-59.99999999999999	59.99999999999999	-153.5024418744506	57.930944294626165	153.58547177960455	-61.20578816493566				
	91	114	0.0029789123197607697	0.0213626300034765	0.2681391625330549	10000	10000	10000	0	0	1	-59.99999999999999	59.99999999999999	-403.33306393869367	57.39643520171563	408.08600128353277	-51.52201170052061				
	91	115	0.0011140258456952897	0.0129505473830168	0.14802050571879896	10000	10000	10000	0	0	1	-59.99999999999999	59.99999999999999	556.8355058131262	-115.32737949617291	-553.4283313112928	139.2170362017547				
	92	116	0.0010885510705970199	0.0147748298170697	1.7006090545761405	10000	10000	10000	0	0	1	-59.99999999999999	59.99999999999999	-64.76961347591252	-142.55743131386288	64.83500826196821	-44.87007184578395				
	92	116	0.0011106263382062301	0.014144395822631203	1.6346730551440307	10000	10000	10000	0	0	1	-59.99999999999999	59.99999999999999	-67.87775663690883	-140.77571616059933	67.95050447377595	-39.311553494994854				
	93	114	0.0003592095476724209	0.00485193630699255	0.09552678346910695	10000	10000	10000	0	0	1	-59.99999999999999	59.99999999999999	-21.765263420214094	48.17195262433625	21.77649430309538	-58.09860102911368				
	93	114	0.00036659299122914716	0.004587482080457733	0.09496649899752864	10000	10000	10000	0	0	1	-59.99999999999999	59.99999999999999	-22.680478383778446	51.37789160362062	22.69328814332061	-61.23682770408906				
	93	119	0.00239067232144671	0.017843493603628604	0.21502937305927303	10000	10000	10000	0	0	1	-59.99999999999999	59.99999999999999	-455.602342342927	104.68682155237465	460.5992803305025	-89.99241428324984				
	93	137	0.00457242868733257	0.03418020142564271	0.4077533713723808	10000	10000	10000	0	0	1	-59.99999999999999	59.99999999999999	632.542653111177	-55.50083774471537	-615.1933149546854	141.85733178812953				
	94	116	0.0017476373474070298	0.0225862475770181	2.5475262015797195	10000	10000	10000	0	0	1	-59.99999999999999	59.99999999999999	493.4466214873968	-154.67681575758166	-489.63021874512725	-80.18860481039552				
	94	149	0.0008477767884357367	0.011571809222622798	1.3597626684780695	10000	10000	10000	0	0	1	-59.99999999999999	59.99999999999999	605.7200024083891	-139.22194116846077	-602.9016611250659	25.375415741528723				
	95	110	0.00018765208803769203	0.0017710291671985806	0.02400285282507539	10000	10000	10000	0	0	1	-59.99999999999999	59.99999999999999	6.675322752271503	151.67406534119326	-6.6342120101976345	-153.8477679093933				
	95	110	0.00018309565764572502	0.0017152461362816408	0.025621291051786402	10000	10000	10000	0	0	1	-59.99999999999999	59.99999999999999	7.015121800165951	156.54342964980592	-6.972364883954634	-158.87730780675233				
	95	127	0.005062739744205489	0.047457793328152004	0.6801827127528468	10000	10000	10000	0	0	1	-59.99999999999999	59.99999999999999	654.6062188382926	0.8625751065372	-634.2648523034948	117.38294462469892				
	95	137	0.005640994447898819	0.054073627863782496	0.7772919484522188	10000	10000	10000	0	0	1	-59.99999999999999	59.99999999999999	617.3201285261443	-6.514575744154127	-597.1640510082659	116.63589360361217				
	96	109	6.81832438181154e-5	0.0006009381685005502	0.006939347560694441	10000	10000	10000	0	0	1	-59.99999999999999	59.99999999999999	81.68037293044162	-2.3522397829180393	-81.676017613737	1.6654362650667083				
	97	98	0.00244661896547396	0.019350938101233905	0.22834600732551413	10000	10000	10000	0	0	1	-59.99999999999999	59.99999999999999	-290.9032952184426	83.07345533581368	293.0995016382779	-89.30696458855705				
	97	109	0.0054815638063252	0.0399409118961464	0.47973428935437484	10000	10000	10000	0	0	1	-59.99999999999999	59.99999999999999	383.18744821855137	-51.03735121568063	-375.43680247209886	57.42169201922272				
	98	113	0.00410372099094093	0.029828231756910704	0.36499138505975703	10000	10000	10000	0	0	1	-59.99999999999999	59.99999999999999	-628.0832724289522	81.14623361861469	644.2898951613893	-1.2342654638175854				
	98	141	0.0038084608243499	0.03183420282778101	0.37810937236825903	10000	10000	10000	0	0	1	-59.99999999999999	59.99999999999999	-467.20059139058685	50.408105439876586	475.4986919154168	-20.025685070613807				
	98	147	0.00144971191580594	0.014868301946477504	0.19000741341426997	10000	10000	10000	0	0	1	-59.99999999999999	59.99999999999999	122.62311707260383	18.258117553141393	-122.39918066504363	-35.3111369079574				
	98	151	0.0016278954856574497	0.0132292583637871	0.157336153255356	10000	10000	10000	0	0	1	-59.99999999999999	59.99999999999999	270.6754515388934	-58.22362225770783	-269.4708713867514	51.85401334801705				
	99	111	0.00709601896856702	0.054174033131706496	0.65326785024438	10000	10000	10000	0	0	1	-59.99999999999999	59.99999999999999	33.9110587999126	1.7818767756792566	-33.74467035702028	-73.68896794837553				
	100	109	0.00166386096210172	0.0135379533045636	0.15520439058789107	10000	10000	10000	0	0	1	-59.99999999999999	59.99999999999999	-529.542109687518	88.98039333633722	534.1415568053006	-67.8033331282852				
	100	114	0.00274414111995976	0.020981657009152704	0.2617178211031481	10000	10000	10000	0	0	1	-59.99999999999999	59.99999999999999	-386.87309237649123	42.90031602469182	390.87408992901885	-39.80293121138243				
	100	133	0.00187141090140715	0.021428806004412503	0.27130704536082195	10000	10000	10000	0	0	1	-59.99999999999999	59.99999999999999	614.954505348922	-78.79341710968141	-608.1305314890388	128.1928010303296				
	101	144	0.005964429343834518	0.04615595429384241	0.559919314950723	10000	10000	10000	0	0	1	-59.99999999999999	59.99999999999999	-69.40475718959175	15.266754978208997	69.77299362191228	-75.3754192012727				
	102	106	0.000254828323430382	0.002517975235153461	1.2525606660218898	10000	10000	10000	0	0	1	-59.99999999999999	59.99999999999999	-91.51797543115346	-82.66587295852558	91.5384287612586	-51.64145708358547				
	102	106	0.000271172397340648	0.00264301669002743	1.24495918041561	10000	10000	10000	0	0	1	-59.99999999999999	59.99999999999999	-87.1962242439314	-81.4044773345697	87.2159731309691	-52.09616334803424				
	103	201	0.0342950132478122	0.09924133636807418	0.0261390999147855	10000	10000	10000	0	0	1	-59.99999999999999	59.99999999999999	38.45657862730968	-7.733503068932912	-37.98273511253153	6.247947703668466				
	103	286	0.035639496886978414	0.10653844324564596	0.02406568979042399	10000	10000	10000	0	0	1	-59.99999999999999	59.99999999999999	43.59124518815678	-7.187834416535541	-42.96391803326399	6.43779646422453				
	103	368	0.00101613012459353	0.0033156576309625097	0.0007252759098713294	10000	10000	10000	0	0	1	-59.99999999999999	59.99999999999999	-82.04782381546832	14.921337485482017	82.11213117923589	-14.791239193887012				
	104	136	0.0013382712363200298	0.017440944915344907	0.26543850867785507	10000	10000	10000	0	0	1	-59.99999999999999	59.99999999999999	445.73429546497255	-68.92603055898533	-443.3002618566137	71.05628961459928				
	105	501	0.0003668577104597351	0.00441661813680176	3.330163318504069	10000	10000	10000	0	0	1	-59.99999999999999	59.99999999999999	-468.7501118834349	-89.84843390834023	469.50940374951256	-268.0342071388176				
	106	137	0.00025530614959993407	0.0030419849197376512	0.0372119472607039	10000	10000	10000	0	0	1	-59.99999999999999	59.99999999999999	-228.71366865585375	124.89340545493617	228.87621789611651	-126.9429679854464				
	106	137	0.00026262887000595193	0.0029070965867340594	0.037134825276170895	10000	10000	10000	0	0	1	-59.99999999999999	59.99999999999999	-238.34373052954754	132.2314201395255	238.52661617442502	-134.18510154788632				
	107	133	0.0005990839999169109	0.00585149085285217	0.08520547032542988	10000	10000	10000	0	0	1	-59.99999999999999	59.99999999999999	326.1626849560417	-90.13268775579373	-325.5221880428581	87.29882461656071				
	107	145	0.00360740342547465	0.033197096485666905	0.514430723322602	10000	10000	10000	0	0	1	-59.99999999999999	59.99999999999999	-462.2934098855044	41.40637626236222	469.70251387392545	-28.210416738192258				
	108	144	0.00399604540073648	0.030581321998375908	0.3795588746255081	10000	10000	10000	0	0	1	-59.99999999999999	59.99999999999999	-38.397633776733535	-53.19163629568852	38.49118456124979	12.31514875462171				
	110	120	0.0006616731316100336	0.004931310835531909	0.07534584023475649	10000	10000	10000	0	0	1	-59.99999999999999	59.99999999999999	18.348439992804998	23.85506682826294	-18.341521060446397	-31.813031418265513				
	110	126	0.0030475391520839203	0.03176800784265111	0.40428603335089985	10000	10000	10000	0	0	1	-59.99999999999999	59.99999999999999	685.4050817036551	52.542361328903716	-671.7991746285352	47.12671414987587				
	110	138	0.005567214432419281	0.04080208764306131	0.5366600638017708	10000	10000	10000	0	0	1	-59.99999999999999	59.99999999999999	-177.06352505955093	-55.42039253114793	178.74084568261753	9.330242402440724				
	110	139	0.003376445538480949	0.03559826780126431	0.47936948058143286	10000	10000	10000	0	0	1	-59.99999999999999	59.99999999999999	652.6519129436579	64.2315676820061	-638.8861370143356	31.210728489288574				
	112	133	0.0004984658036660401	0.0052260588949895525	0.07084876054867645	10000	10000	10000	0	0	1	-59.99999999999999	59.99999999999999	-204.99984796245224	-31.278577779471117	205.20007893654815	25.81446407581849				
	112	137	0.00048894178866595	0.004779740621322771	0.06421571918618488	10000	10000	10000	0	0	1	-59.99999999999999	59.99999999999999	-159.34603119584204	-17.728240962918797	159.46353916204077	12.02824812041593				
	113	141	0.0016177231878188407	0.013075334178902207	0.15598860032670206	10000	10000	10000	0	0	1	-59.99999999999999	59.99999999999999	307.33253091973296	14.18378114239518	-305.87225660996927	-18.67889343009468				
	113	144	0.004230393194225061	0.031163470459792307	0.3978532764773349	10000	10000	10000	0	0	1	-59.99999999999999	59.99999999999999	-29.864262432126488	-104.72916420575733	30.18256579278339	64.11862181774102				
	113	151	0.00487603953066887	0.037748682541321	0.528233339417093	10000	10000	10000	0	0	1	-59.99999999999999	59.99999999999999	607.2318212300866	-9.732900624428275	-590.1247980477143	87.18506995640844				
	114	151	0.004608929471296258	0.03800400496403689	0.46118647054224277	10000	10000	10000	0	0	1	-59.99999999999999	59.99999999999999	-424.5279426146818	92.485934919547	433.01673308680904	-70.50920800667818				
	114	151	0.004585812630360851	0.03577098650301621	0.41855507495459193	10000	10000	10000	0	0	1	-59.99999999999999	59.99999999999999	-449.7903201663449	104.98231278755567	459.3077620594777	-74.32356548971391				
	116	149	0.0008832353375784117	0.011167770984761396	1.3441456838160801	10000	10000	10000	0	0	1	-59.99999999999999	59.99999999999999	-373.12335375505734	-79.79344192510621	374.22600542236114	-56.80616237173002				
	117	145	0.00022335998928956703	0.0021623495207090905	0.032297981452569395	10000	10000	10000	0	0	1	-59.99999999999999	59.99999999999999	599.7521510036779	3.742039060860647	-599.0060527606632	0.007116629800962837				
	117	145	0.000238167415531352	0.0023182632682465006	0.0307610085719302	10000	10000	10000	0	0	1	-59.99999999999999	59.99999999999999	559.4450943006057	3.766329754316422	-558.7528668418128	-0.3368736456965338				
	117	148	0.007106177316955288	0.051405020363783506	0.6380371500890237	10000	10000	10000	0	0	1	-59.99999999999999	59.99999999999999	35.19049514255184	-19.89949620979305	-35.0949902566928	-47.499889964811054				
	118	137	0.0035206865253672006	0.036645195242716	0.506899248446147	10000	10000	10000	0	0	1	-59.99999999999999	59.99999999999999	247.41216595099024	-63.705916443551835	-245.31389166402988	31.860791284577587				
	118	140	0.0011094031405812098	0.012115308408995605	0.16344245562190196	10000	10000	10000	0	0	1	-59.99999999999999	59.99999999999999	473.1256292211695	-15.926530891365026	-470.7603196554293	24.638291333893797				
	118	142	0.00020985141811380198	0.0021308087728247006	0.02607113050868731	10000	10000	10000	0	0	1	-59.99999999999999	59.99999999999999	-803.1587483663436	69.93579264035948	804.4579165516644	-59.48288930837881				
	119	151	0.0025201892583891702	0.01983479489308781	0.25642106492965905	10000	10000	10000	0	0	1	-59.99999999999999	59.99999999999999	-414.32823194398327	94.13659776581135	418.74853649784296	-85.9454959758677				
	120	138	0.005233336294688658	0.03793305422313649	0.4776140188000159	10000	10000	10000	0	0	1	-59.99999999999999	59.99999999999999	-192.6078521274414	-57.383804604279895	194.48733951387297	19.118746415567916				
	121	237	0.0007342707045497373	0.0017635611776928397	0.06341918928609089	10000	10000	10000	0	0	1	-59.99999999999999	59.99999999999999	-52.1446072876667	10.418699421970521	52.164171801180316	-17.303226818634972				
	122	239	0.0009008754581382962	0.0019385515564050494	0.07174157153103132	10000	10000	10000	0	0	1	-59.99999999999999	59.99999999999999	-47.07020376748294	7.423224073011051	47.089532225279	-15.221796797004453				
	123	236	0.0009037223643902689	0.0019775712276953296	0.07457003090416173	10000	10000	10000	0	0	1	-59.99999999999999	59.99999999999999	-0.7711021297385222	-0.1001416689445464	0.771237911246515	-8.062714275031864				
	123	269	5.1981014211196526e-5	0.00032222801719605895	0.0039727934883935405	10000	10000	10000	0	0	1	-59.99999999999999	59.99999999999999	2.2463266349023042e-8	-0.4349288513635724	-1.0115899003876327e-11	-6.411260750267302e-11				
	124	238	0.0007565912162875762	0.0016061035189018594	0.0648863307164828	10000	10000	10000	0	0	1	-59.99999999999999	59.99999999999999	-46.81327185125592	6.513760543144239	46.82911118065458	-13.587774100231496				
	124	270	4.81858534854837e-5	0.0002854397524427621	0.004405165715259499	10000	10000	10000	0	0	1	-59.99999999999999	59.99999999999999	2.56227756080616e-8	-0.48245630344417206	-2.0499753153671585e-11	-6.303392866262997e-11				
	125	345	0.000133933790829498	0.0006494332575686267	0.007479217681894081	10000	10000	10000	0	0	1	-59.99999999999999	59.99999999999999	-7.326366076310098e-12	-5.547347520576396e-13	2.0675252510472114e-7	-0.8255612985061725				
	126	139	0.000721468428298831	0.006858697729018521	0.10203571456060696	10000	10000	10000	0	0	1	-59.99999999999999	59.99999999999999	228.57405892458223	63.65458826644112	-228.17142905533174	-70.18286478188325				
	126	139	0.0007328506571939221	0.006924745208468291	0.10565240891925098	10000	10000	10000	0	0	1	-59.99999999999999	59.99999999999999	226.42196706144367	62.665153698514	-226.02080317848214	-69.59751355469346				
	126	142	0.00109038195973262	0.010209810531835999	0.152121480317786	10000	10000	10000	0	0	1	-59.99999999999999	59.99999999999999	27.212032187864722	-154.57808552401193	-26.973982231400996	141.04763538558362				
	126	146	0.000533160382474959	0.005050116726952881	0.07690113015689928	10000	10000	10000	0	0	1	-59.99999999999999	59.99999999999999	234.40810977409035	67.83789043910721	-234.09433726970113	-72.68183555609843				
	127	137	0.000482097479462531	0.0049991164487591016	0.0731080089859739	10000	10000	10000	0	0	1	-59.99999999999999	59.99999999999999	444.85179026050474	-123.33110886344096	-443.88671539627006	125.56030148886217				
	128	131	0.0006510614951667379	0.0063578261494319915	0.08881317310842171	10000	10000	10000	0	0	1	-59.99999999999999	59.99999999999999	-310.6439692239572	54.41035048905333	311.24453526458313	-58.16057637369211				
	128	131	0.0006804984633834101	0.006824063138660971	0.08404103195147122	10000	10000	10000	0	0	1	-59.99999999999999	59.99999999999999	-289.64323545509353	49.86848058645765	290.1884033157845	-53.499831396593464				
	130	400	0.0004017247190759519	0.0011143440619185597	0.0010264679814111347	10000	10000	10000	0	0	1	-59.99999999999999	59.99999999999999	-5.554907120224051e-12	-4.788785470596912e-12	1.1504978542661685e-8	-0.11157389894354734				
	131	137	0.00093172233903408	0.010179013713213603	0.131859650623836	10000	10000	10000	0	0	1	-59.99999999999999	59.99999999999999	-197.47349589989574	77.19907828875185	197.8708752733005	-87.02642440912788				
	131	140	0.00180625766765866	0.0196081123656034	0.241563580367481	10000	10000	10000	0	0	1	-59.99999999999999	59.99999999999999	-267.7318533948865	112.53307136598949	269.1930549442212	-122.3448147295467				
	131	142	0.0024711063312795	0.026756174016029612	0.3412631819133651	10000	10000	10000	0	0	1	-59.99999999999999	59.99999999999999	-475.9459367028951	112.47825645012296	481.5157470127277	-88.5463438967717				
	132	240	0.050466646081768006	0.13810153952864898	0.02857858604894949	10000	10000	10000	0	0	1	-59.99999999999999	59.99999999999999	-19.116691884023016	-2.9392549214598747	19.292181351063416	0.3649639872478766				
	132	387	0.0341483374678809	0.08629042608339335	0.01829617928587369	10000	10000	10000	0	0	1	-59.99999999999999	59.99999999999999	4.821778801147333	-2.208049971921965	-4.813768444489171	0.2957567100251517				
	133	145	0.00414311490017199	0.03987566436200871	0.6107460691964353	10000	10000	10000	0	0	1	-59.99999999999999	59.99999999999999	-433.1500606599862	43.59213040527998	440.63964698457045	-36.98718795655247				
	134	557	0.00041508565774876587	0.0033696280453614906	2.457417634188569	10000	10000	10000	0	0	1	-59.99999999999999	59.99999999999999	300.0974971424788	-270.84741063480914	-299.69353644337804	0.31980673105063695				
	137	143	0.0006007844828772356	0.0060861772845340915	0.0844447730286107	10000	10000	10000	0	0	1	-59.99999999999999	59.99999999999999	72.14157654966411	85.53556119127285	-72.06668996790211	-93.74595478487896				
	139	146	0.000260147637901828	0.00249511185301747	0.034025754706913096	10000	10000	10000	0	0	1	-59.99999999999999	59.99999999999999	-153.57826043368303	-43.1602436994402	153.64352080132872	40.34911508485297				
	141	151	0.006103511092722421	0.04747930508131442	0.531508752820017	10000	10000	10000	0	0	1	-59.99999999999999	59.99999999999999	395.5444139681995	-33.831628515073554	-386.33972649438647	50.48755667507654				
	148	150	0.00470323144650012	0.035423657524215106	0.4320892225623969	10000	10000	10000	0	0	1	-59.99999999999999	59.99999999999999	-226.30916051562434	-55.3892179709079	228.63423832290394	26.116255734431164				
	152	305	0.08482580144515732	0.21576227856217894	0.04793308662138878	10000	10000	10000	0	0	1	-59.99999999999999	59.99999999999999	15.037094848485369	-11.608243851895567	-14.788152144238234	7.162963447873044				
	152	324	0.09216109331963636	0.252731762580634	0.053216856760745904	10000	10000	10000	0	0	1	-59.99999999999999	59.99999999999999	17.86701455443989	-12.880162785250986	-17.498263663319797	8.238073929657315				
	152	328	0.14660060473484895	0.4336830756503617	0.08441986633040935	10000	10000	10000	0	0	1	-59.99999999999999	59.99999999999999	20.821815895879546	-10.508333131334298	-20.16623949955253	3.563910053994232				
	152	625	0.0816180064428365	0.24852212814153588	0.0498730454116506	10000	10000	10000	0	0	1	-59.99999999999999	59.99999999999999	24.833340318709705	-19.028129991775327	-24.145990789036553	15.758528297486835				
	153	327	0.11972691967822595	0.31561065180294207	0.07052570526500784	10000	10000	10000	0	0	1	-59.99999999999999	59.99999999999999	60.649406921125646	-1.380448472961665	-56.8721798828626	3.5443076864889287				
	157	266	0.0073481386190014895	0.027084312552027392	0.007304179940303788	10000	10000	10000	0	0	1	-59.99999999999999	59.99999999999999	67.84742495288457	-5.805411767563873	-67.54080619987347	6.127138163945068				
	157	328	0.06430236821700819	0.17978284463658892	0.039188245123857594	10000	10000	10000	0	0	1	-59.99999999999999	59.99999999999999	5.0256085475713554	12.18927733370983	-4.891464260086472	-16.05239020176273				
	157	439	0.013764156946195304	0.05547133659962558	0.013970784274740099	10000	10000	10000	0	0	1	-59.99999999999999	59.99999999999999	57.80355287021969	-4.008246798364623	-57.38799913651297	4.139915043281461				
	157	625	0.033516937474636396	0.09253534544164307	0.019445091573066103	10000	10000	10000	0	0	1	-59.99999999999999	59.99999999999999	-23.903051823861393	14.1954259210031	24.14599076322937	-15.672210610676949				
	158	300	0.00232129511072766	0.023596613976266195	0.00944844518988952	10000	10000	10000	0	0	1	-59.99999999999999	59.99999999999999	85.54063288137819	24.984181322866466	-85.36522802729216	-24.18992226525221				
	158	332	0.0009374614781420681	0.008534391758374867	0.0032798085023425494	10000	10000	10000	0	0	1	-59.99999999999999	59.99999999999999	163.38141047358997	49.23594286632431	-163.1223474106538	-47.221437830898424				
	158	440	0.03910356974238528	0.13724645487025394	0.027509415414333296	10000	10000	10000	0	0	1	-59.99999999999999	59.99999999999999	28.507932464460062	0.7339918722040623	-28.204731291304608	-2.533351129870895				
	158	440	0.0391109898971301	0.13332004798937094	0.028704409679621498	10000	10000	10000	0	0	1	-59.99999999999999	59.99999999999999	29.298047585539805	0.5019472590183858	-28.978108721361934	-2.3992830668240748				
	158	483	0.0025969930342533594	0.02487079684794879	0.0100089951337874	10000	10000	10000	0	0	1	-59.99999999999999	59.99999999999999	102.0860220418035	28.93566696823341	-101.80792769590677	-27.318004571171873				
	159	293	0.03849524709378881	0.10315015862777101	0.021005102677311704	10000	10000	10000	0	0	1	-59.99999999999999	59.99999999999999	0.00044526261064946164	-2.1990660973330005	-6.505213034913027e-16	1.7585759237714882e-13				
	159	450	0.00504658115445636	0.04844925607439128	0.007345125751487441	10000	10000	10000	0	0	1	-59.99999999999999	59.99999999999999	27.556338154703603	14.777875973056886	-27.50862676614932	-15.08205141911585				
	159	450	0.004984208895359191	0.0500184619898302	0.006879821772045459	10000	10000	10000	0	0	1	-59.99999999999999	59.99999999999999	26.63806145756854	14.452410533864915	-26.593809743067588	-14.722265987897623				
	159	463	0.0011283213729495198	0.027333370479108793	0.0015231814300268895	10000	10000	10000	0	0	1	-59.99999999999999	59.99999999999999	-34.10502688115058	10.376785277027958	34.11874862675683	-10.203387296865154				
	159	463	0.001465341174695639	0.028810969831753998	0.001940103144571188	10000	10000	10000	0	0	1	-59.99999999999999	59.99999999999999	-32.24539545859759	10.123068020092052	32.261420655225415	-10.010519008651631				
	159	463	0.0010124690310992302	0.006220217468315739	0.0016202587559074196	10000	10000	10000	0	0	1	-59.99999999999999	59.99999999999999	-141.54160301476423	62.71621159586084	141.77361820535234	-61.45994299252743				
	160	204	0.03713735064702341	0.1660244527816399	0.439467819973268	10000	10000	10000	0	0	1	-59.99999999999999	59.99999999999999	-5.365632850194004	-36.534299710067856	5.439317933391765	-10.453476603332307				
	161	285	0.011195397630292002	0.03268669014166569	0.007303788624471045	10000	10000	10000	0	0	1	-59.99999999999999	59.99999999999999	21.58870409364813	1.8336622487770597	-21.54363260111918	-2.554605859841999				
	161	310	0.028279031073711818	0.12718387141320894	0.030635143730044403	10000	10000	10000	0	0	1	-59.99999999999999	59.99999999999999	35.42945248034955	9.233995300721574	-35.09677930378364	-11.252702712925576				
	161	488	0.017746030093096197	0.08264867896333336	0.019345907812053285	10000	10000	10000	0	0	1	-59.99999999999999	59.99999999999999	-0.24019298761616056	21.651719219284256	0.31891100649400417	-23.51328071353684				
	162	214	0.0006957378639131781	0.005779441676177549	0.16339648452316902	10000	10000	10000	0	0	1	-59.99999999999999	59.99999999999999	-2.4485107080213075	-28.725102911447426	2.4509981048552354	10.69738304430978				
	162	268	0.00013469704178115303	0.0008068893493339419	0.0119809248770289	10000	10000	10000	0	0	1	-59.99999999999999	59.99999999999999	57.90639178610818	-39.875854034231196	-57.90042127907541	38.589335748484444				
	162	309	0.00051902065923214	0.004381330450064218	0.11307902935775599	10000	10000	10000	0	0	1	-59.99999999999999	59.99999999999999	-0.5183320549898798	-29.27048620665003	0.5208284890179118	16.80275682114141				
	162	345	8.371821073442698e-5	0.0005663062696516507	0.009285571455374356	10000	10000	10000	0	0	1	-59.99999999999999	59.99999999999999	39.12707436965079	-40.41598156531299	-39.124704722394064	39.4072436944426				
	162	517	0.000297132604429498	0.002356686860172079	0.06092698699716479	10000	10000	10000	0	0	1	-59.99999999999999	59.99999999999999	51.686316966041154	2.563106532812587	-51.679028604917285	-9.226317637120307				
	162	518	0.000294323009653017	0.002353190984619779	0.06092686202386017	10000	10000	10000	0	0	1	-59.99999999999999	59.99999999999999	79.88724032218752	11.083995653558889	-79.8696606278956	-17.662734524191492				
	162	530	0.00038596826991066293	0.004704185158237808	0.05546157770449669	10000	10000	10000	0	0	1	-59.99999999999999	59.99999999999999	-2.253231372833344	-27.324915593313225	2.2553086868924233	21.224114899662823				
	163	362	0.0007149850017152731	0.005940233604649359	0.0027200930348411203	10000	10000	10000	0	0	1	-59.99999999999999	59.99999999999999	140.51867074314814	-85.95039925081305	-140.33361306342215	87.20187718762342				
	164	362	0.0007039737042564899	0.005986224213820878	0.0029336591113544998	10000	10000	10000	0	0	1	-59.99999999999999	59.99999999999999	147.563470917779	-90.307046728139	-147.3623786655683	91.70863613305701				
	165	240	0.006973423682034022	0.043420309793702296	0.00961514875106513	10000	10000	10000	0	0	1	-59.99999999999999	59.99999999999999	44.15955420116993	8.378052713841013	-44.03023895360747	-8.61858688502525				
	165	242	0.00409676693452522	0.026501719788671493	0.005882945050857957	10000	10000	10000	0	0	1	-59.99999999999999	59.99999999999999	50.667738427983245	13.645654518823081	-50.564328873605355	-13.617155222425426				
	167	482	8.843996591679751e-5	0.0007554668131818529	0.001514224892149196	10000	10000	10000	0	0	1	-59.99999999999999	59.99999999999999	117.48674851030185	10.4607692138906	-117.47528531132016	-10.52537366368044				
	168	482	0.00010381631865631802	0.0008673296346589919	0.001319023555279449	10000	10000	10000	0	0	1	-59.99999999999999	59.99999999999999	123.80293949957914	10.98764885148994	-123.78799977064571	-11.004414192878176				
	169	482	9.808356003835803e-5	0.000836988572375849	0.0013668182208948095	10000	10000	10000	0	0	1	-59.99999999999999	59.99999999999999	122.98114541605443	9.442443703191639	-122.96724431907407	-9.470525305759548				
	170	294	0.0210587474328652	0.09115112085567419	0.020496184518050905	10000	10000	10000	0	0	1	-59.99999999999999	59.99999999999999	71.11316229615716	-4.138362514175606	-70.10306979441849	6.366211994012014				
	170	307	0.016590047498525808	0.0765936850407127	0.009137140149995678	10000	10000	10000	0	0	1	-59.99999999999999	59.99999999999999	39.32298273359078	11.207977571305774	-39.0586504045842	-10.939024256846777				
	170	376	0.026908621856764896	0.08423912022784347	0.020545830284487504	10000	10000	10000	0	0	1	-59.99999999999999	59.99999999999999	-79.56554445564822	5.4442492860563405	81.18916211485832	-2.569130870485786				
	171	417	0.0007978660589512439	0.0064857603558599874	0.0029478048850856684	10000	10000	10000	0	0	1	-59.99999999999999	59.99999999999999	221.77161072321087	-13.941694229557095	-221.40475365427844	16.60752944596762				
	172	193	0.00325308564902376	0.02033695205842609	0.004857836650230459	10000	10000	10000	0	0	1	-59.99999999999999	59.99999999999999	35.1808708307749	5.111246172086884	-35.14538866757051	-5.452544926875139				
	172	322	0.035809709959786794	0.09896004992827766	0.0216718416346018	10000	10000	10000	0	0	1	-59.99999999999999	59.99999999999999	29.311680400259565	-0.9747701616055343	-29.046747623447377	-0.7876194955300869				
	172	421	0.06617580714446493	0.20238403459419496	0.0488623414546065	10000	10000	10000	0	0	1	-59.99999999999999	59.99999999999999	48.801641911665364	8.654539433944874	-47.36938910938597	-9.701784040598094				
	175	388	0.00717519660964934	0.032018284045913295	0.00883821157493535	10000	10000	10000	0	0	1	-59.99999999999999	59.99999999999999	72.8352122136071	24.61202861368155	-72.45113741648727	-23.866643531381772				
...